<nodes>
<node id="n1" x = "-500" y="0"/>
<node id="n2" x ="0" y="0" type="traffic_light"/>
<node id="n3" x ="500" y="0"/>
<node id="n4" x ="0" y="500"/>
<node id="n5" x ="0" y="-500"/>
</nodes>
