<?xml version="1.0" encoding="UTF-8"?>

<!-- generated on 2024-03-19 15:01:04 by Eclipse SUMO netconvert Version 1.19.0
<configuration xmlns:xsi="http://www.w3.org/2001/XMLSchema-instance" xsi:noNamespaceSchemaLocation="http://sumo.dlr.de/xsd/netconvertConfiguration.xsd">

    <input>
        <node-files value="simple.nod.xml"/>
        <edge-files value="simple.edg.xml"/>
        <type-files value="simple.type.xml"/>
    </input>

    <output>
        <output-file value="simple.net.xml"/>
    </output>

</configuration>
-->

<net version="1.16" junctionCornerDetail="5" limitTurnSpeed="5.50" xmlns:xsi="http://www.w3.org/2001/XMLSchema-instance" xsi:noNamespaceSchemaLocation="http://sumo.dlr.de/xsd/net_file.xsd">

    <location netOffset="500.00,500.00" convBoundary="0.00,0.00,1000.00,1000.00" origBoundary="-500.00,-500.00,500.00,500.00" projParameter="!"/>

    <type id="3L60" numLanes="3" speed="60.00"/>

    <edge id=":n1_0" function="internal">
        <lane id=":n1_0_0" index="0" speed="3.65" length="4.67" shape="0.00,501.60 -1.20,500.80 -1.60,500.00 -1.20,499.20 0.00,498.40"/>
    </edge>
    <edge id=":n2_0" function="internal">
        <lane id=":n2_0_0" index="0" speed="6.51" length="9.03" shape="492.00,513.60 491.65,511.15 490.60,509.40 488.85,508.35 486.40,508.00"/>
    </edge>
    <edge id=":n2_1" function="internal">
        <lane id=":n2_1_0" index="0" speed="60.00" length="27.20" shape="492.00,513.60 492.00,486.40"/>
        <lane id=":n2_1_1" index="1" speed="60.00" length="27.20" shape="495.20,513.60 495.20,486.40"/>
        <lane id=":n2_1_2" index="2" speed="60.00" length="27.20" shape="498.40,513.60 498.40,486.40"/>
    </edge>
    <edge id=":n2_4" function="internal">
        <lane id=":n2_4_0" index="0" speed="10.36" length="5.01" shape="498.40,513.60 499.11,508.64"/>
    </edge>
    <edge id=":n2_5" function="internal">
        <lane id=":n2_5_0" index="0" speed="3.65" length="1.44" shape="498.40,513.60 499.20,512.40"/>
    </edge>
    <edge id=":n2_24" function="internal">
        <lane id=":n2_24_0" index="0" speed="10.36" length="19.50" shape="499.11,508.64 499.35,506.95 502.20,502.20 506.95,499.35 513.60,498.40"/>
    </edge>
    <edge id=":n2_25" function="internal">
        <lane id=":n2_25_0" index="0" speed="3.65" length="3.23" shape="499.20,512.40 500.00,512.00 500.80,512.40 501.60,513.60"/>
    </edge>
    <edge id=":n2_6" function="internal">
        <lane id=":n2_6_0" index="0" speed="6.51" length="9.03" shape="513.60,508.00 511.15,508.35 509.40,509.40 508.35,511.15 508.00,513.60"/>
    </edge>
    <edge id=":n2_7" function="internal">
        <lane id=":n2_7_0" index="0" speed="60.00" length="27.20" shape="513.60,508.00 486.40,508.00"/>
        <lane id=":n2_7_1" index="1" speed="60.00" length="27.20" shape="513.60,504.80 486.40,504.80"/>
        <lane id=":n2_7_2" index="2" speed="60.00" length="27.20" shape="513.60,501.60 486.40,501.60"/>
    </edge>
    <edge id=":n2_10" function="internal">
        <lane id=":n2_10_0" index="0" speed="10.36" length="5.01" shape="513.60,501.60 508.64,500.89"/>
    </edge>
    <edge id=":n2_11" function="internal">
        <lane id=":n2_11_0" index="0" speed="3.65" length="1.44" shape="513.60,501.60 512.40,500.80"/>
    </edge>
    <edge id=":n2_26" function="internal">
        <lane id=":n2_26_0" index="0" speed="10.36" length="19.50" shape="508.64,500.89 506.95,500.65 502.20,497.80 499.35,493.05 498.40,486.40"/>
    </edge>
    <edge id=":n2_27" function="internal">
        <lane id=":n2_27_0" index="0" speed="3.65" length="3.23" shape="512.40,500.80 512.00,500.00 512.40,499.20 513.60,498.40"/>
    </edge>
    <edge id=":n2_12" function="internal">
        <lane id=":n2_12_0" index="0" speed="6.51" length="9.03" shape="508.00,486.40 508.35,488.85 509.40,490.60 511.15,491.65 513.60,492.00"/>
    </edge>
    <edge id=":n2_13" function="internal">
        <lane id=":n2_13_0" index="0" speed="60.00" length="27.20" shape="508.00,486.40 508.00,513.60"/>
        <lane id=":n2_13_1" index="1" speed="60.00" length="27.20" shape="504.80,486.40 504.80,513.60"/>
        <lane id=":n2_13_2" index="2" speed="60.00" length="27.20" shape="501.60,486.40 501.60,513.60"/>
    </edge>
    <edge id=":n2_16" function="internal">
        <lane id=":n2_16_0" index="0" speed="10.36" length="5.01" shape="501.60,486.40 500.89,491.36"/>
    </edge>
    <edge id=":n2_17" function="internal">
        <lane id=":n2_17_0" index="0" speed="3.65" length="1.44" shape="501.60,486.40 500.80,487.60"/>
    </edge>
    <edge id=":n2_28" function="internal">
        <lane id=":n2_28_0" index="0" speed="10.36" length="19.50" shape="500.89,491.36 500.65,493.05 497.80,497.80 493.05,500.65 486.40,501.60"/>
    </edge>
    <edge id=":n2_29" function="internal">
        <lane id=":n2_29_0" index="0" speed="3.65" length="3.23" shape="500.80,487.60 500.00,488.00 499.20,487.60 498.40,486.40"/>
    </edge>
    <edge id=":n2_18" function="internal">
        <lane id=":n2_18_0" index="0" speed="6.51" length="9.03" shape="486.40,492.00 488.85,491.65 490.60,490.60 491.65,488.85 492.00,486.40"/>
    </edge>
    <edge id=":n2_19" function="internal">
        <lane id=":n2_19_0" index="0" speed="60.00" length="27.20" shape="486.40,492.00 513.60,492.00"/>
        <lane id=":n2_19_1" index="1" speed="60.00" length="27.20" shape="486.40,495.20 513.60,495.20"/>
        <lane id=":n2_19_2" index="2" speed="60.00" length="27.20" shape="486.40,498.40 513.60,498.40"/>
    </edge>
    <edge id=":n2_22" function="internal">
        <lane id=":n2_22_0" index="0" speed="10.36" length="5.01" shape="486.40,498.40 491.36,499.11"/>
    </edge>
    <edge id=":n2_23" function="internal">
        <lane id=":n2_23_0" index="0" speed="3.65" length="1.44" shape="486.40,498.40 487.60,499.20"/>
    </edge>
    <edge id=":n2_30" function="internal">
        <lane id=":n2_30_0" index="0" speed="10.36" length="19.50" shape="491.36,499.11 493.05,499.35 497.80,502.20 500.65,506.95 501.60,513.60"/>
    </edge>
    <edge id=":n2_31" function="internal">
        <lane id=":n2_31_0" index="0" speed="3.65" length="3.23" shape="487.60,499.20 488.00,500.00 487.60,500.80 486.40,501.60"/>
    </edge>
    <edge id=":n3_0" function="internal">
        <lane id=":n3_0_0" index="0" speed="3.65" length="4.67" shape="1000.00,498.40 1001.20,499.20 1001.60,500.00 1001.20,500.80 1000.00,501.60"/>
    </edge>
    <edge id=":n4_0" function="internal">
        <lane id=":n4_0_0" index="0" speed="3.65" length="4.67" shape="501.60,1000.00 500.80,1001.20 500.00,1001.60 499.20,1001.20 498.40,1000.00"/>
    </edge>
    <edge id=":n5_0" function="internal">
        <lane id=":n5_0_0" index="0" speed="3.65" length="4.67" shape="498.40,0.00 499.20,-1.20 500.00,-1.60 500.80,-1.20 501.60,0.00"/>
    </edge>

    <edge id="1to2" from="n1" to="n2" priority="-1" type="3L60">
        <lane id="1to2_0" index="0" speed="60.00" length="486.40" shape="0.00,492.00 486.40,492.00"/>
        <lane id="1to2_1" index="1" speed="60.00" length="486.40" shape="0.00,495.20 486.40,495.20"/>
        <lane id="1to2_2" index="2" speed="60.00" length="486.40" shape="0.00,498.40 486.40,498.40"/>
    </edge>
    <edge id="2to1" from="n2" to="n1" priority="-1" type="3L60">
        <lane id="2to1_0" index="0" speed="60.00" length="486.40" shape="486.40,508.00 0.00,508.00"/>
        <lane id="2to1_1" index="1" speed="60.00" length="486.40" shape="486.40,504.80 0.00,504.80"/>
        <lane id="2to1_2" index="2" speed="60.00" length="486.40" shape="486.40,501.60 0.00,501.60"/>
    </edge>
    <edge id="2to3" from="n2" to="n3" priority="-1" type="3L60">
        <lane id="2to3_0" index="0" speed="60.00" length="486.40" shape="513.60,492.00 1000.00,492.00"/>
        <lane id="2to3_1" index="1" speed="60.00" length="486.40" shape="513.60,495.20 1000.00,495.20"/>
        <lane id="2to3_2" index="2" speed="60.00" length="486.40" shape="513.60,498.40 1000.00,498.40"/>
    </edge>
    <edge id="2to4" from="n2" to="n4" priority="-1" type="3L60">
        <lane id="2to4_0" index="0" speed="60.00" length="486.40" shape="508.00,513.60 508.00,1000.00"/>
        <lane id="2to4_1" index="1" speed="60.00" length="486.40" shape="504.80,513.60 504.80,1000.00"/>
        <lane id="2to4_2" index="2" speed="60.00" length="486.40" shape="501.60,513.60 501.60,1000.00"/>
    </edge>
    <edge id="2to5" from="n2" to="n5" priority="-1" type="3L60">
        <lane id="2to5_0" index="0" speed="60.00" length="486.40" shape="492.00,486.40 492.00,0.00"/>
        <lane id="2to5_1" index="1" speed="60.00" length="486.40" shape="495.20,486.40 495.20,0.00"/>
        <lane id="2to5_2" index="2" speed="60.00" length="486.40" shape="498.40,486.40 498.40,0.00"/>
    </edge>
    <edge id="3to2" from="n3" to="n2" priority="-1" type="3L60">
        <lane id="3to2_0" index="0" speed="60.00" length="486.40" shape="1000.00,508.00 513.60,508.00"/>
        <lane id="3to2_1" index="1" speed="60.00" length="486.40" shape="1000.00,504.80 513.60,504.80"/>
        <lane id="3to2_2" index="2" speed="60.00" length="486.40" shape="1000.00,501.60 513.60,501.60"/>
    </edge>
    <edge id="4to2" from="n4" to="n2" priority="-1" type="3L60">
        <lane id="4to2_0" index="0" speed="60.00" length="486.40" shape="492.00,1000.00 492.00,513.60"/>
        <lane id="4to2_1" index="1" speed="60.00" length="486.40" shape="495.20,1000.00 495.20,513.60"/>
        <lane id="4to2_2" index="2" speed="60.00" length="486.40" shape="498.40,1000.00 498.40,513.60"/>
    </edge>
    <edge id="5to2" from="n5" to="n2" priority="-1" type="3L60">
        <lane id="5to2_0" index="0" speed="60.00" length="486.40" shape="508.00,0.00 508.00,486.40"/>
        <lane id="5to2_1" index="1" speed="60.00" length="486.40" shape="504.80,0.00 504.80,486.40"/>
        <lane id="5to2_2" index="2" speed="60.00" length="486.40" shape="501.60,0.00 501.60,486.40"/>
    </edge>

    <tlLogic id="n2" type="static" programID="0" offset="0">
        <phase duration="34" state="GGGGggrrrrrrGGGGggrrrrrr"/>
        <phase duration="11" state="yyyyyyrrrrrryyyyyyrrrrrr"/>
        <phase duration="34" state="rrrrrrGGGGggrrrrrrGGGGgg"/>
        <phase duration="11" state="rrrrrryyyyyyrrrrrryyyyyy"/>
    </tlLogic>

    <junction id="n1" type="priority" x="0.00" y="500.00" incLanes="2to1_0 2to1_1 2to1_2" intLanes=":n1_0_0" shape="0.00,500.00 0.00,509.60 0.00,500.00">
        <request index="0" response="0" foes="0" cont="0"/>
    </junction>
    <junction id="n2" type="traffic_light" x="500.00" y="500.00" incLanes="4to2_0 4to2_1 4to2_2 3to2_0 3to2_1 3to2_2 5to2_0 5to2_1 5to2_2 1to2_0 1to2_1 1to2_2" intLanes=":n2_0_0 :n2_1_0 :n2_1_1 :n2_1_2 :n2_24_0 :n2_25_0 :n2_6_0 :n2_7_0 :n2_7_1 :n2_7_2 :n2_26_0 :n2_27_0 :n2_12_0 :n2_13_0 :n2_13_1 :n2_13_2 :n2_28_0 :n2_29_0 :n2_18_0 :n2_19_0 :n2_19_1 :n2_19_2 :n2_30_0 :n2_31_0" shape="490.40,513.60 509.60,513.60 510.04,511.38 510.60,510.60 511.38,510.04 512.38,509.71 513.60,509.60 513.60,490.40 511.38,489.96 510.60,489.40 510.04,488.62 509.71,487.62 509.60,486.40 490.40,486.40 489.96,488.62 489.40,489.40 488.62,489.96 487.62,490.29 486.40,490.40 486.40,509.60 488.62,510.04 489.40,510.60 489.96,511.38 490.29,512.38">
        <request index="0"  response="000000000000000000000000" foes="000000000000001110000000" cont="0"/>
        <request index="1"  response="010000000000010000000000" foes="011111110000011110000000" cont="0"/>
        <request index="2"  response="010000000000010000000000" foes="011111110000011110000000" cont="0"/>
        <request index="3"  response="010000000000010000000000" foes="011111110000011110000000" cont="0"/>
        <request index="4"  response="010000001110010000000000" foes="011110001110111110000000" cont="1"/>
        <request index="5"  response="010000001110000000000000" foes="010000001110000000000000" cont="1"/>
        <request index="6"  response="000000001110000000000000" foes="000000001110000000000000" cont="0"/>
        <request index="7"  response="000000011110000000011111" foes="110000011110000000011111" cont="0"/>
        <request index="8"  response="000000011110000000011111" foes="110000011110000000011111" cont="0"/>
        <request index="9"  response="000000011110000000011111" foes="110000011110000000011111" cont="0"/>
        <request index="10" response="001110011110000000011110" foes="001110111110000000011110" cont="1"/>
        <request index="11" response="001110000000000000010000" foes="001110000000000000010000" cont="1"/>
        <request index="12" response="000000000000000000000000" foes="001110000000000000000000" cont="0"/>
        <request index="13" response="010000000000010000000000" foes="011110000000011111110000" cont="0"/>
        <request index="14" response="010000000000010000000000" foes="011110000000011111110000" cont="0"/>
        <request index="15" response="010000000000010000000000" foes="011110000000011111110000" cont="0"/>
        <request index="16" response="010000000000010000001110" foes="111110000000011110001110" cont="1"/>
        <request index="17" response="000000000000010000001110" foes="000000000000010000001110" cont="1"/>
        <request index="18" response="000000000000000000001110" foes="000000000000000000001110" cont="0"/>
        <request index="19" response="000000011111000000011110" foes="000000011111110000011110" cont="0"/>
        <request index="20" response="000000011111000000011110" foes="000000011111110000011110" cont="0"/>
        <request index="21" response="000000011111000000011110" foes="000000011111110000011110" cont="0"/>
        <request index="22" response="000000011110001110011110" foes="000000011110001110111110" cont="1"/>
        <request index="23" response="000000010000001110000000" foes="000000010000001110000000" cont="1"/>
    </junction>
    <junction id="n3" type="priority" x="1000.00" y="500.00" incLanes="2to3_0 2to3_1 2to3_2" intLanes=":n3_0_0" shape="1000.00,500.00 1000.00,490.40 1000.00,500.00">
        <request index="0" response="0" foes="0" cont="0"/>
    </junction>
    <junction id="n4" type="priority" x="500.00" y="1000.00" incLanes="2to4_0 2to4_1 2to4_2" intLanes=":n4_0_0" shape="500.00,1000.00 509.60,1000.00 500.00,1000.00">
        <request index="0" response="0" foes="0" cont="0"/>
    </junction>
    <junction id="n5" type="priority" x="500.00" y="0.00" incLanes="2to5_0 2to5_1 2to5_2" intLanes=":n5_0_0" shape="500.00,0.00 490.40,0.00 500.00,0.00">
        <request index="0" response="0" foes="0" cont="0"/>
    </junction>

    <junction id=":n2_24_0" type="internal" x="499.11" y="508.64" incLanes=":n2_4_0 5to2_0 5to2_1 5to2_2" intLanes=":n2_7_0 :n2_7_1 :n2_7_2 :n2_10_0 :n2_11_0 :n2_12_0 :n2_13_0 :n2_13_1 :n2_13_2 :n2_19_0 :n2_19_1 :n2_19_2 :n2_22_0"/>
    <junction id=":n2_25_0" type="internal" x="499.20" y="512.40" incLanes=":n2_5_0 1to2_2 3to2_0 5to2_0 5to2_1 5to2_2" intLanes=":n2_6_0 :n2_13_0 :n2_13_1 :n2_13_2 :n2_22_0"/>
    <junction id=":n2_26_0" type="internal" x="508.64" y="500.89" incLanes=":n2_10_0 1to2_0 1to2_1 1to2_2" intLanes=":n2_1_0 :n2_1_1 :n2_1_2 :n2_4_0 :n2_13_0 :n2_13_1 :n2_13_2 :n2_16_0 :n2_17_0 :n2_18_0 :n2_19_0 :n2_19_1 :n2_19_2"/>
    <junction id=":n2_27_0" type="internal" x="512.40" y="500.80" incLanes=":n2_11_0 1to2_0 1to2_1 1to2_2 4to2_2 5to2_0" intLanes=":n2_4_0 :n2_12_0 :n2_19_0 :n2_19_1 :n2_19_2"/>
    <junction id=":n2_28_0" type="internal" x="500.89" y="491.36" incLanes=":n2_16_0 4to2_0 4to2_1 4to2_2" intLanes=":n2_0_0 :n2_1_0 :n2_1_1 :n2_1_2 :n2_7_0 :n2_7_1 :n2_7_2 :n2_10_0 :n2_19_0 :n2_19_1 :n2_19_2 :n2_22_0 :n2_23_0"/>
    <junction id=":n2_29_0" type="internal" x="500.80" y="487.60" incLanes=":n2_17_0 1to2_0 3to2_2 4to2_0 4to2_1 4to2_2" intLanes=":n2_1_0 :n2_1_1 :n2_1_2 :n2_10_0 :n2_18_0"/>
    <junction id=":n2_30_0" type="internal" x="491.36" y="499.11" incLanes=":n2_22_0 3to2_0 3to2_1 3to2_2" intLanes=":n2_1_0 :n2_1_1 :n2_1_2 :n2_4_0 :n2_5_0 :n2_6_0 :n2_7_0 :n2_7_1 :n2_7_2 :n2_13_0 :n2_13_1 :n2_13_2 :n2_16_0"/>
    <junction id=":n2_31_0" type="internal" x="487.60" y="499.20" incLanes=":n2_23_0 3to2_0 3to2_1 3to2_2 4to2_0 5to2_2" intLanes=":n2_0_0 :n2_7_0 :n2_7_1 :n2_7_2 :n2_16_0"/>

    <connection from="1to2" to="2to5" fromLane="0" toLane="0" via=":n2_18_0" tl="n2" linkIndex="18" dir="r" state="o"/>
    <connection from="1to2" to="2to3" fromLane="0" toLane="0" via=":n2_19_0" tl="n2" linkIndex="19" dir="s" state="o"/>
    <connection from="1to2" to="2to3" fromLane="1" toLane="1" via=":n2_19_1" tl="n2" linkIndex="20" dir="s" state="o"/>
    <connection from="1to2" to="2to3" fromLane="2" toLane="2" via=":n2_19_2" tl="n2" linkIndex="21" dir="s" state="o"/>
    <connection from="1to2" to="2to4" fromLane="2" toLane="2" via=":n2_22_0" tl="n2" linkIndex="22" dir="l" state="o"/>
    <connection from="1to2" to="2to1" fromLane="2" toLane="2" via=":n2_23_0" tl="n2" linkIndex="23" dir="t" state="o"/>
    <connection from="2to1" to="1to2" fromLane="2" toLane="2" via=":n1_0_0" dir="t" state="M"/>
    <connection from="2to3" to="3to2" fromLane="2" toLane="2" via=":n3_0_0" dir="t" state="M"/>
    <connection from="2to4" to="4to2" fromLane="2" toLane="2" via=":n4_0_0" dir="t" state="M"/>
    <connection from="2to5" to="5to2" fromLane="2" toLane="2" via=":n5_0_0" dir="t" state="M"/>
    <connection from="3to2" to="2to4" fromLane="0" toLane="0" via=":n2_6_0" tl="n2" linkIndex="6" dir="r" state="o"/>
    <connection from="3to2" to="2to1" fromLane="0" toLane="0" via=":n2_7_0" tl="n2" linkIndex="7" dir="s" state="o"/>
    <connection from="3to2" to="2to1" fromLane="1" toLane="1" via=":n2_7_1" tl="n2" linkIndex="8" dir="s" state="o"/>
    <connection from="3to2" to="2to1" fromLane="2" toLane="2" via=":n2_7_2" tl="n2" linkIndex="9" dir="s" state="o"/>
    <connection from="3to2" to="2to5" fromLane="2" toLane="2" via=":n2_10_0" tl="n2" linkIndex="10" dir="l" state="o"/>
    <connection from="3to2" to="2to3" fromLane="2" toLane="2" via=":n2_11_0" tl="n2" linkIndex="11" dir="t" state="o"/>
    <connection from="4to2" to="2to1" fromLane="0" toLane="0" via=":n2_0_0" tl="n2" linkIndex="0" dir="r" state="O"/>
    <connection from="4to2" to="2to5" fromLane="0" toLane="0" via=":n2_1_0" tl="n2" linkIndex="1" dir="s" state="O"/>
    <connection from="4to2" to="2to5" fromLane="1" toLane="1" via=":n2_1_1" tl="n2" linkIndex="2" dir="s" state="O"/>
    <connection from="4to2" to="2to5" fromLane="2" toLane="2" via=":n2_1_2" tl="n2" linkIndex="3" dir="s" state="O"/>
    <connection from="4to2" to="2to3" fromLane="2" toLane="2" via=":n2_4_0" tl="n2" linkIndex="4" dir="l" state="o"/>
    <connection from="4to2" to="2to4" fromLane="2" toLane="2" via=":n2_5_0" tl="n2" linkIndex="5" dir="t" state="o"/>
    <connection from="5to2" to="2to3" fromLane="0" toLane="0" via=":n2_12_0" tl="n2" linkIndex="12" dir="r" state="O"/>
    <connection from="5to2" to="2to4" fromLane="0" toLane="0" via=":n2_13_0" tl="n2" linkIndex="13" dir="s" state="O"/>
    <connection from="5to2" to="2to4" fromLane="1" toLane="1" via=":n2_13_1" tl="n2" linkIndex="14" dir="s" state="O"/>
    <connection from="5to2" to="2to4" fromLane="2" toLane="2" via=":n2_13_2" tl="n2" linkIndex="15" dir="s" state="O"/>
    <connection from="5to2" to="2to1" fromLane="2" toLane="2" via=":n2_16_0" tl="n2" linkIndex="16" dir="l" state="o"/>
    <connection from="5to2" to="2to5" fromLane="2" toLane="2" via=":n2_17_0" tl="n2" linkIndex="17" dir="t" state="o"/>

    <connection from=":n1_0" to="1to2" fromLane="0" toLane="2" dir="t" state="M"/>
    <connection from=":n2_0" to="2to1" fromLane="0" toLane="0" dir="r" state="M"/>
    <connection from=":n2_1" to="2to5" fromLane="0" toLane="0" dir="s" state="M"/>
    <connection from=":n2_1" to="2to5" fromLane="1" toLane="1" dir="s" state="M"/>
    <connection from=":n2_1" to="2to5" fromLane="2" toLane="2" dir="s" state="M"/>
    <connection from=":n2_4" to="2to3" fromLane="0" toLane="2" via=":n2_24_0" dir="l" state="m"/>
    <connection from=":n2_24" to="2to3" fromLane="0" toLane="2" dir="l" state="M"/>
    <connection from=":n2_5" to="2to4" fromLane="0" toLane="2" via=":n2_25_0" dir="t" state="m"/>
    <connection from=":n2_25" to="2to4" fromLane="0" toLane="2" dir="t" state="M"/>
    <connection from=":n2_6" to="2to4" fromLane="0" toLane="0" dir="r" state="M"/>
    <connection from=":n2_7" to="2to1" fromLane="0" toLane="0" dir="s" state="M"/>
    <connection from=":n2_7" to="2to1" fromLane="1" toLane="1" dir="s" state="M"/>
    <connection from=":n2_7" to="2to1" fromLane="2" toLane="2" dir="s" state="M"/>
    <connection from=":n2_10" to="2to5" fromLane="0" toLane="2" via=":n2_26_0" dir="l" state="m"/>
    <connection from=":n2_26" to="2to5" fromLane="0" toLane="2" dir="l" state="M"/>
    <connection from=":n2_11" to="2to3" fromLane="0" toLane="2" via=":n2_27_0" dir="t" state="m"/>
    <connection from=":n2_27" to="2to3" fromLane="0" toLane="2" dir="t" state="M"/>
    <connection from=":n2_12" to="2to3" fromLane="0" toLane="0" dir="r" state="M"/>
    <connection from=":n2_13" to="2to4" fromLane="0" toLane="0" dir="s" state="M"/>
    <connection from=":n2_13" to="2to4" fromLane="1" toLane="1" dir="s" state="M"/>
    <connection from=":n2_13" to="2to4" fromLane="2" toLane="2" dir="s" state="M"/>
    <connection from=":n2_16" to="2to1" fromLane="0" toLane="2" via=":n2_28_0" dir="l" state="m"/>
    <connection from=":n2_28" to="2to1" fromLane="0" toLane="2" dir="l" state="M"/>
    <connection from=":n2_17" to="2to5" fromLane="0" toLane="2" via=":n2_29_0" dir="t" state="m"/>
    <connection from=":n2_29" to="2to5" fromLane="0" toLane="2" dir="t" state="M"/>
    <connection from=":n2_18" to="2to5" fromLane="0" toLane="0" dir="r" state="M"/>
    <connection from=":n2_19" to="2to3" fromLane="0" toLane="0" dir="s" state="M"/>
    <connection from=":n2_19" to="2to3" fromLane="1" toLane="1" dir="s" state="M"/>
    <connection from=":n2_19" to="2to3" fromLane="2" toLane="2" dir="s" state="M"/>
    <connection from=":n2_22" to="2to4" fromLane="0" toLane="2" via=":n2_30_0" dir="l" state="m"/>
    <connection from=":n2_30" to="2to4" fromLane="0" toLane="2" dir="l" state="M"/>
    <connection from=":n2_23" to="2to1" fromLane="0" toLane="2" via=":n2_31_0" dir="t" state="m"/>
    <connection from=":n2_31" to="2to1" fromLane="0" toLane="2" dir="t" state="M"/>
    <connection from=":n3_0" to="3to2" fromLane="0" toLane="2" dir="t" state="M"/>
    <connection from=":n4_0" to="4to2" fromLane="0" toLane="2" dir="t" state="M"/>
    <connection from=":n5_0" to="5to2" fromLane="0" toLane="2" dir="t" state="M"/>

</net>
